redirect IEEE13Base.dss
new loadshape.pvshape npts=86401 sinterval=1 mult=(file=pvshape.dat) action=normalize
new pvsystem.pv1 bus1=634 phases=3 kV=0.48 irradiance=1 pmpp=285 kVA=300 daily=pvshape
new monitor.pv1v element=pvsystem.pv1 terminal=1 mode=96
new monitor.pv1pq element=pvsystem.pv1 terminal=1 mode=65 PPolar=NO
new monitor.fdrpq element=line.650632 terminal=1 mode=65 PPolar=NO
solve
export summary pvsnap_summary.csv
set controlmode=static
set maxcontroliter=1000
solve mode=daily stepsize=1s number=86400
open Line.671692 1
export monitors pv1v
export monitors pv1pq
export monitors fdrpq
help
quit
